
This summary file was generated by TurbSim (v2.00.08a-bjj, 18-Jul-2017) on 25-May-2020 at 18:23:31.


ERROR:  ReadInputFile:OpenFInpFile:The input file, "TurbSim.inp", was not found.

ABORTING PROGRAM.
